Flow Title=Muncie_rashdf_edit
Program Version=6.50
Use Restart= 0 
Restart Filename=Muncie.p05.02JAN1900 1200.rst
Initial Flow Loc=White           ,Muncie          ,15696.24,1000
Keep SA Constant=-1
IC Point Elev=IC Points 1                     ,939
IC Point Elev=IC Points 2                     ,931
Boundary Location=White           ,Muncie          ,15696.24,        ,                ,                ,                ,                                ,                                
Interval=1HOUR
Flow Hydrograph= 65 
   13500   14000   14500   15000   15500   16000   16500   17000   17500   18000
   18500   19000   19500   20000   20500   21000   21000   21000   21000   21000
   21000   20500   20000   19500   19000   18500   18000   17500   17000   16500
   16000   15500   1500014583.3314166.67   1375013333.3312916.67   1250012083.33
11666.67   1125010833.3310416.67   10000 9666.67 9333.33    9000 8666.67 8333.33
    8000 7666.67 7333.33    7000 6666.67 6333.33    6000    5875    5750    5625
    5500    5375    5250    5125    5000
Stage Hydrograph TW Check=0
DSS Path=
Use DSS=False
Use Fixed Start Time=False
Fixed Start Date/Time=,
Is Critical Boundary=False
Critical Boundary Flow=
Boundary Location=White           ,Muncie          ,237.6455,        ,                ,                ,                ,                                ,                                
Friction Slope=0.00064,0
Boundary Location=                ,                ,        ,        ,                ,2D Interior Area,                ,2d_out                          ,                                
Friction Slope=0.01,0
Boundary Location=                ,                ,        ,        ,                ,Perimeter_NW    ,                ,NW_out                          ,                                
Friction Slope=0.0005,0
Met Point Raster Parameters=,,,,
Precipitation Mode=Disable
Wind Mode=No Wind Forces
Air Density Mode=Specified
Met BC=Precipitation|Expanded View=0
Met BC=Precipitation|Point Interpolation=Nearest
Met BC=Precipitation|Gridded Source=DSS
Met BC=Evapotranspiration|Expanded View=0
Met BC=Evapotranspiration|Point Interpolation=Nearest
Met BC=Evapotranspiration|Gridded Source=DSS
Met BC=Wind Speed|Expanded View=0
Met BC=Wind Speed|Point Interpolation=Nearest
Met BC=Wind Speed|Gridded Source=DSS
Met BC=Wind Direction|Expanded View=0
Met BC=Wind Direction|Point Interpolation=Nearest
Met BC=Wind Direction|Gridded Source=DSS
Met BC=Wind Velocity X|Expanded View=0
Met BC=Wind Velocity X|Point Interpolation=Nearest
Met BC=Wind Velocity X|Gridded Source=DSS
Met BC=Wind Velocity Y|Expanded View=0
Met BC=Wind Velocity Y|Point Interpolation=Nearest
Met BC=Wind Velocity Y|Gridded Source=DSS
Met BC=Air Density|Mode=Constant
Met BC=Air Density|Expanded View=0
Met BC=Air Density|Constant Value=1.225
Met BC=Air Density|Constant Units=kg/m3
Met BC=Air Density|Point Interpolation=Nearest
Met BC=Air Density|Gridded Source=DSS
Met BC=Air Temperature|Expanded View=0
Met BC=Air Temperature|Point Interpolation=Nearest
Met BC=Air Temperature|Gridded Source=DSS
Met BC=Humidity|Expanded View=0
Met BC=Humidity|Point Interpolation=Nearest
Met BC=Humidity|Gridded Source=DSS
Met BC=Air Pressure|Mode=Constant
Met BC=Air Pressure|Expanded View=0
Met BC=Air Pressure|Constant Value=1013.2
Met BC=Air Pressure|Constant Units=mb
Met BC=Air Pressure|Point Interpolation=
Met BC=Air Pressure|Gridded Source=DSS
Non-Newtonian Method= 0 ,   
Non-Newtonian Constant Vol Conc=0
Non-Newtonian Yield Method= 0 ,   
Non-Newtonian Yield Coef=0, 0
User Yeild=   0
Non-Newtonian Sed Visc= 0 ,   
Non-Newtonian Obrian B=0
User Viscosity=0
User Viscosity Ratio=0
Herschel-Bulkley Coef=0, 0
Clastic Method= 0 ,   
Coulomb Phi=0
Voellmy X=0
Non-Newtonian Hindered FV= 0 
Non-Newtonian FV K=0
Non-Newtonian ds=0
Non-Newtonian Max Cv=0
Non-Newtonian Bulking Method= 0 , 
Non-Newtonian High C Transport= 0 , 
Lava Activation= 0 
Temperature=1300,15,,15,14,980
Heat Ballance=1,1200,0.5,1,70,0.95
Viscosity=1000,,,
Yield Strength=,,,
Consistency Factor=,,,
Profile Coefficient=4,1.3,
Lava Param=,2500,
