Geom Title=Muncie_rashdf_edit
Program Version=6.50
Viewing Rectangle= 401571.15 , 414302.31 , 1806670.07 , 1799648.8455 

River Reach=White           ,Muncie          
Reach XY= 87 
       413723.62      1800205.15       413628.76      1800234.34
        413533.9      1800248.93       413402.56      1800278.12
       413322.29      1800307.31       413190.94      1800372.98
       413110.68      1800445.95       413001.22      1800599.19
       412935.55      1800767.02       412906.36      1800876.47
       412899.06      1800993.22       412891.77      1801182.94
       412833.39      1801306.99       412753.12      1801423.74
       412694.75      1801496.71       412541.51      1801664.54
       412432.77      1801708.42       412307.51      1801746.67
       412118.41      1801802.02       411958.52      1801877.35
       411804.78      1802018.79       411731.55      1802175.33
       411680.47      1802328.57       411643.98      1802525.59
       411643.98      1802722.61        411600.2      1802919.62
       411549.12      1803123.94       411468.86      1803269.88
       411344.81      1803372.04       411206.17      1803401.22
       411060.23      1803401.22       410914.29      1803364.74
       410731.86      1803277.18       410461.87      1803123.94
       410264.86      1803021.78       410075.13      1802905.03
        409914.6      1802853.95       409768.66      1802810.17
       409578.94      1802810.17       409454.89      1802817.47
       409308.95      1802890.44       409257.87      1802934.22
       409119.23      1803109.35       409038.96      1803247.99
       408893.03      1803393.93       408659.52      1803583.65
        408477.1      1803729.59       408374.94      1803839.04
       408243.59      1803984.98       408104.95      1804079.84
       407944.42      1804160.11       407813.07      1804247.67
       407659.84       1804415.5       407535.79      1804561.44
       407440.93      1804634.41       407243.91      1804794.95
       407054.19      1804882.51       406908.25      1804962.78
       406703.93      1805035.75        406543.4      1805101.42
       406426.65      1805116.01       406236.93       1805137.9
       406076.39       1805152.5       405915.86       1805152.5
       405718.84       1805137.9       405499.93      1805094.12
       405310.21      1805043.04       405149.68      1804970.07
       405040.22       1804911.7       404938.07      1804802.24
       404872.39       1804678.2        404843.2      1804517.66
        404843.2      1804327.94       404916.17      1804109.03
        405105.9      1803642.02       405281.02      1803328.25
       405507.23       1802970.7         405591.      1802821.69
       405619.86      1802729.25       405605.45      1802584.82
       405514.53      1802372.35        405346.7      1802204.52
        405105.9      1802036.69       404916.17      1801905.34
       404726.45       1801781.3       404536.73      1801701.03
       404398.09      1801686.44
Rch Text X Y=,
Reverse River Text= 0 

Type RM Length L Ch R = 1 ,15696.24,228.66,210.73,167.84
XS GIS Cut Line=4
       413443.24      1799937.56        413545.9       1800177.1
       413561.86      1800361.88       413662.24      1800708.63
Node Last Edited Time=Dec/10/2015 15:50:50
#Sta/Elev= 134 
       0  963.04    27.2  963.04   32.64  963.02   38.08  962.85   43.52  962.71
    54.4  962.71   59.84  962.61   65.28  962.47   70.72  962.23   76.16  961.81
    81.6  961.29   87.04  960.64   92.48  959.69   97.92  958.81  103.36  958.17
  114.24  956.84     136  954.97  141.44  954.47  146.88  953.93  152.32  953.23
  168.63  951.83  174.07  951.53  179.51  951.29  184.95  951.09  190.39  950.84
  195.83  950.47  201.27  950.24  206.71  950.16  212.15  949.89  217.59  949.65
  223.03  949.57  228.47  949.35  233.91  949.26  239.35  949.21  244.79  948.96
  250.23  948.76  255.67   948.4   260.6  947.74  265.62  946.81  270.64  945.99
  275.66  944.87  280.68   943.8   285.7  942.58  290.72  941.38  295.74   940.1
  300.75  938.88  305.77  938.16  310.79  937.71  315.81  937.36  320.83  937.12
  325.85  937.12  330.87   937.1  335.88  936.99   340.9  936.99  345.92  937.29
  350.94  938.14  355.96  939.35  360.98  940.64     366  941.99  371.02   943.3
  376.03  944.55  381.05  945.53  386.07  946.44  391.09   947.1  396.11  947.69
  401.13  947.95  406.15  948.02  411.16   948.3  416.18  948.34  426.22  948.29
  431.24  948.19  436.26  947.95  441.28  947.93  446.08  947.81  451.28  947.56
  456.49  947.24  461.69  946.91   466.9  946.63   472.1  946.59  477.31  946.25
  482.51  945.98  487.72  945.92  492.92   945.6  498.13  945.32  503.34  945.27
  508.54  944.99  513.75  944.92  518.95  944.67  524.16  944.61  529.36  944.34
  534.57  944.34  539.77  944.31  544.98  944.06  550.18  943.95  555.39  943.68
  560.59  943.63   565.8   943.3     571  943.03  576.21     943  581.41  942.74
  586.62  942.61  591.82  942.37  597.03  942.37  602.24  942.32  607.44  942.03
  612.65   941.8  617.85  941.43  623.06  941.39  633.47  941.39  638.67  941.33
  643.88  941.06  675.11  941.06  680.31   941.2  685.52  941.42  690.72  941.74
  695.93  942.22  701.14  943.02  706.34  944.06  711.55  944.91  716.75   946.3
  721.96  947.49  727.16   948.8  732.37  950.16  747.98  953.39  753.19  954.45
  758.39  955.28   763.6  955.93   768.8  956.67  774.01  957.39  779.21  957.85
  784.42  958.17  789.62   958.5  794.83  958.77  807.07  958.77
#Mann= 3 ,0,0
       0     .07       0  250.23     .04       0  401.13     .07       0
Bank Sta=250.23,401.13
XS Rating Curve= 0 ,0
XS HTab Starting El and Incr=937.99,0.5, 100 
XS HTab Horizontal Distribution= 5 , 5 , 5 
Exp/Cntr=0.3,0.1

Type RM Length L Ch R = 1 ,15485.51,121.23,115.09,103.79
XS GIS Cut Line=3
       413231.08        1800006.       413516.24      1800717.76
       413518.52      1800731.45
Node Last Edited Time=Dec/10/2015 15:50:50
#Sta/Elev= 93 
       0  959.43    5.39  959.43   10.77  959.41   16.16  959.22   21.55   959.1
   48.48   959.1   53.86  959.15   59.25  959.28   64.64  959.43  134.66  959.43
  140.05  959.25  145.43  959.11  177.75   959.1  183.14  958.85  188.52  958.77
  193.91  958.77   199.3  958.45  204.68  958.32  210.07  958.12  220.84  957.46
  226.23  956.82  231.61  955.91     237  954.09  242.39     952  247.77  949.04
  253.16  946.02  258.55  943.45  263.93  941.22  269.32   939.7   274.7  939.09
  290.86  938.11  296.25  938.11  301.64  937.78  328.57  937.78  333.95   938.1
  339.34  938.76  344.73  939.34  350.11  940.13  366.27  943.48  371.66  944.59
  377.04  945.71  382.43   946.5  387.82  946.96  398.59  947.22  403.98  947.29
  409.36  947.16  414.75  946.97  425.52  946.96  436.29  946.31  452.45  946.31
  457.84  945.98     474  945.98  479.39  945.65  484.77  945.65  490.16  945.52
  495.54  945.33  506.32  944.67  517.09  944.67  522.48  944.34  538.64  944.34
  544.02  944.14  549.41  943.69  560.18  943.68  565.57  943.29  570.95  942.83
  581.73  942.56  587.11  942.11   592.5  942.04  597.89  941.72  614.04  941.72
  624.82  942.37   630.2  942.37  635.59  942.89  640.98  943.08  646.36  943.61
  657.14  944.66  662.52  945.64  667.91  946.69  673.29  947.61  678.68  948.72
  684.07  949.91  700.23  952.86  705.61  953.85     711  954.82  716.39  955.67
  721.77  956.47  727.16  957.13  732.54  958.11  737.93  958.45  743.32   959.1
  754.09  959.76  776.89  959.76  780.63  959.73
#Mann= 3 ,0,0
       0     .07       0  253.16     .04       0  387.82     .07       0
Bank Sta=253.16,387.82
XS Rating Curve= 0 ,0
XS HTab Starting El and Incr=938.78,0.5, 100 
XS HTab Horizontal Distribution= 5 , 5 , 5 
Exp/Cntr=0.3,0.1

Type RM Length L Ch R = 1 ,15370.43,174.81,165.14,117.82
XS GIS Cut Line=6
       413110.17       1800177.1        413192.3      1800256.94
       413242.49      1800343.63       413313.21      1800491.91
       413370.24      1800624.23       413413.58      1800738.29
Node Last Edited Time=Dec/10/2015 15:50:50
#Sta/Elev= 88 
       0  955.81   20.92   956.8   48.81  958.11   55.79  958.12   62.76  958.44
   69.74  958.46   76.71  958.76   83.68  958.78  120.32  958.78   126.1  958.72
  131.87  958.45  137.65  958.45  143.43  958.39  149.21  958.06  154.98  957.71
  160.76     957  166.54  955.73  172.32  953.98  178.09  951.66  183.87     949
  189.16  946.02  194.55  943.45  199.93  941.22  205.32   939.7   210.7  939.09
  226.86  938.11  232.25  938.11  237.64  937.78  264.57  937.78  269.95   938.1
  275.34  938.76  280.73  939.34  286.11  940.13  302.27  943.48  307.66  944.59
  313.04  945.71  318.43   946.5   325.5  948.61  336.58   948.3  342.12  948.28
  347.66  948.13  364.28   946.7  375.36  946.05  378.99  945.77  384.44  945.59
  389.88   945.3  395.33  945.03  400.77  944.98  406.22  944.74  411.66  944.67
  433.44  944.67  438.89  944.57  444.33  944.41  455.22  944.28  460.66  944.01
  466.11   943.8  471.55  943.33     477  943.01  482.44  942.72  487.89  942.37
  493.33  942.35  498.78  942.37  504.22  942.37  509.67  942.42  515.11  942.87
  523.08  943.56  528.42  944.22  533.77     945  539.12  946.03  544.47  947.26
  549.82  948.47  555.17  949.94  560.52  951.29  565.87  952.53  571.21  953.97
  576.56  955.37  581.91   956.5  587.26  957.61  592.61  958.51  597.96  958.99
  608.66  959.64  614.01  959.76  619.35  959.76   624.7  959.97  630.05  959.88
   635.4  959.56  640.75  959.43   645.1  959.23
#Mann= 3 ,0,0
       0     .07       0  183.87     .04       0   325.5     .07       0
Bank Sta=183.87,325.5
XS Rating Curve= 0 ,0
XS HTab Starting El and Incr=945.16,0.5, 100 
XS HTab Horizontal Distribution= 5 , 5 , 5 
Exp/Cntr=0.3,0.1

Type RM Length L Ch R = 1 ,15205.29,216.56,192.09,159.11
XS GIS Cut Line=4
       413047.27       1800366.1        413093.2      1800426.78
        413174.1      1800499.97       413331.94      1800745.18
Node Last Edited Time=Dec/10/2015 15:50:50
#Sta/Elev= 63 
       0  947.09    6.27  946.97   18.81  946.96   25.08  946.64   31.35  946.63
   37.62   946.3   43.89  945.43   50.17  944.85   56.44  944.14   62.71  942.42
   68.98  941.81   76.11  941.44   89.59  942.03   96.33  942.51  103.08  942.95
  109.82  943.66  116.56  944.39   123.3  945.01  130.05  945.58  136.79  946.17
  143.53  946.56  150.27  947.14  157.02  947.48  163.76  947.62   170.5  947.81
  177.24  947.95  232.77  947.95  238.72  947.65  244.67   947.3  250.61  946.76
  256.56  946.26   262.5  945.95  268.45  945.67   274.4  945.26  280.34     945
  292.24     945  298.18  944.74  304.13  944.67  310.08  944.67  316.02  944.43
  321.97  944.08  327.91  943.96  333.86  943.48  339.81   943.1  345.75  942.77
   351.7   942.7  363.59  942.11  369.54  942.04  375.48  941.76  381.43  941.72
  399.27  941.72  405.22  941.42  411.16  941.39  423.05  941.39     429  941.44
  434.95  941.65  440.89  941.97  446.84  942.59  452.79  943.71  458.73  944.74
  464.68  945.85  470.62  947.39  476.82  948.81
#Mann= 3 ,0,0
       0     .07       0   18.81     .04       0  157.02     .07       0
Bank Sta=18.81,157.02
XS Rating Curve= 0 ,0
XS HTab Starting El and Incr=942.39,0.5, 100 
XS HTab Horizontal Distribution= 5 , 5 , 5 
Exp/Cntr=0.3,0.1

Type RM Length L Ch R = 1 ,15013.20,98.06,95.84,84
XS GIS Cut Line=3
        412928.9      1800569.03       413061.36      1800626.81
       413207.92      1800812.82
Node Last Edited Time=Dec/10/2015 15:50:50
#Sta/Elev= 43 
       0  945.06    5.45  943.62   10.91  942.69   16.36  942.17   21.82  941.78
   27.27  941.72   38.18  941.72   43.64  941.49   49.09  941.39   54.55  941.16
      60  941.06   65.46  941.06   70.91  940.83   76.37  940.73  103.64  940.73
   109.1     941  114.55  941.24  120.01  941.43  125.46  941.83  130.92  942.06
  136.37  942.33  144.52  942.77  150.89  943.03  157.25  943.03  163.62  943.22
  169.98  943.36  246.37  943.36  252.73  943.16   259.1  943.06  265.46  943.08
  278.19  943.74  284.56  944.04  290.93  944.06  310.02  945.05  316.39  945.33
  322.75  945.38  329.12  945.69  335.48  945.76  341.85     946  348.21  946.03
  360.95  946.69  367.31  946.97  381.34  946.97
#Mann= 3 ,0,0
       0     .07       0    5.45     .04       0  169.98     .07       0
Bank Sta=5.45,169.98
XS Rating Curve= 0 ,0
XS HTab Starting El and Incr=941.73,0.5, 100 
XS HTab Horizontal Distribution= 5 , 5 , 5 
Exp/Cntr=0.3,0.1

Type RM Length L Ch R = 1 ,14917.36,60.31,61.12,51.13
XS GIS Cut Line=3
       412878.16       1800656.4       413012.04      1800707.13
       413106.46      1800798.73
Node Last Edited Time=Dec/10/2015 15:50:50
#Sta/Elev= 39 
       0  945.46    5.35  945.14   10.69  944.63   16.04  944.16   21.39  943.65
   26.73  942.99   32.08  942.57   37.43  942.32   42.78  942.21   53.47  942.02
   58.82  941.86   64.16  941.72   74.86  941.72    80.2  941.53   85.55  941.39
   96.25  941.39  101.59  941.21  106.94  941.06  112.29  941.07  122.98  941.54
  128.33   941.9  133.67  942.15  139.02  942.36  143.17  942.49  150.13  942.72
   157.1  943.03  164.07  943.03  171.03  943.16     178  943.36  184.97  943.48
  191.93  943.69   198.9  944.12  205.86  944.65   240.7  946.25  247.66  946.59
  254.63  946.88   261.6  947.23  268.56  947.52  274.72  947.62
#Mann= 3 ,0,0
       0     .07       0   10.69     .04       0  205.86     .07       0
Bank Sta=10.69,205.86
XS Rating Curve= 0 ,0
XS HTab Starting El and Incr=942.06,0.5, 100 
XS HTab Horizontal Distribution= 5 , 5 , 5 
Exp/Cntr=0.3,0.1

Type RM Length L Ch R = 1 ,14856.24,81.17,68.84,51.97
XS GIS Cut Line=3
       412848.57      1800708.54        412975.4      1800759.27
       413078.27      1800826.92
Node Last Edited Time=Dec/10/2015 15:50:50
#Sta/Elev= 39 
       0  945.93    5.39  945.79   10.77  945.59   16.16  945.28   21.54  944.76
   26.93   944.3   32.31  943.65    37.7  943.05   43.08  942.59   48.47  941.91
   53.85  941.45   59.24  940.92   64.62  940.64   70.01  940.51   80.78  940.18
   86.16  940.32   91.55  940.52   96.93  940.65  102.32  940.95   107.7  941.06
  113.09  941.27  123.86  941.45  129.24   941.6   136.6  942.05  142.59  942.05
  154.55  942.71  160.54  943.03  166.52  943.03  184.47  944.64  196.44  945.08
  202.43  945.62  208.41  945.99  214.39  946.31  220.38   946.6  226.36  946.97
  232.35   947.3   250.3   947.3  256.28  947.56  259.72  947.62
#Mann= 3 ,0,0
       0     .07       0   26.93     .04       0  184.47     .07       0
Bank Sta=26.93,184.47
XS Rating Curve= 0 ,0
XS HTab Starting El and Incr=941.18,0.5, 100 
XS HTab Horizontal Distribution= 5 , 5 , 5 
Exp/Cntr=0.3,0.1

Type RM Length L Ch R = 1 ,14787.40,88.66,90.18,73.83
XS GIS Cut Line=3
       412814.75      1800795.91       412945.81      1800815.64
       413055.73      1800862.15
Node Last Edited Time=Dec/10/2015 15:50:50
#Sta/Elev= 40 
       0  944.63    5.06  944.71   10.11  944.76   15.17  944.69   20.23  944.38
   25.28  944.06   30.34  943.44   35.39  942.49   40.45  941.51   45.51  940.24
   50.56  939.79   60.68  939.14   65.73  938.52   70.79  938.15   75.85  937.89
    80.9   937.8   85.96  937.78  106.18  937.78  111.24  938.07   116.3   938.4
  121.35  938.85  126.41  939.35  132.54  940.09  137.96  940.41  143.39  940.44
  148.82   940.8  154.25  941.42  165.11  942.09  170.54   942.5  175.97  943.39
   181.4  943.75  186.83  944.37  208.54  945.69   219.4  946.33  224.83   946.7
  230.26  947.33  235.69  947.62  241.12  947.62  246.55  947.65  251.89  947.95
#Mann= 3 ,0,0
       0     .07       0   15.17     .04       0  186.83     .07       0
Bank Sta=15.17,186.83
XS Rating Curve= 0 ,0
XS HTab Starting El and Incr=938.78,0.5, 100 
XS HTab Horizontal Distribution= 5 , 5 , 5 
Exp/Cntr=0.3,0.1

Type RM Length L Ch R = 1 ,14697.22,161.94,161.62,154.67
XS GIS Cut Line=2
       412795.02      1800880.47       413054.32      1800926.97
Node Last Edited Time=Dec/10/2015 15:50:50
#Sta/Elev= 40 
       0  945.99   15.24  945.99   20.32   945.8    25.4  945.97   30.48  945.99
   35.56  945.68   40.64  944.95   45.72  943.77    50.8  942.55   55.88   941.2
   60.96  940.43   71.12  939.64    76.2  939.26   81.28   939.1   91.44   939.1
   96.52  938.88   101.6  938.92  106.68  938.98  111.76   939.4  116.83  939.73
  126.99  940.27  132.07  940.53  137.15  940.72  142.23  940.74  147.31  941.04
  152.39  941.06  157.47  941.06  162.55  941.37  172.71  942.03  182.87  942.68
  193.03  943.97  198.11  944.32  213.35  945.31  218.43  945.94  223.51  946.29
  228.59  946.62  233.67  947.56  238.75  947.93  243.83  947.95  263.44  947.95
#Mann= 3 ,0,0
       0     .07       0   40.64     .04       0  198.11     .07       0
Bank Sta=40.64,198.11
XS Rating Curve= 0 ,0
XS HTab Starting El and Incr=939.88,0.5, 100 
XS HTab Horizontal Distribution= 5 , 5 , 5 
Exp/Cntr=0.3,0.1

Type RM Length L Ch R = 1 ,14535.60,92.63,91.89,97.76
XS GIS Cut Line=3
       412780.93      1801043.94       412947.22      1801069.31
       413055.73      1801072.12
Node Last Edited Time=Dec/10/2015 15:50:50
#Sta/Elev= 42 
       0  947.16    5.06  947.18   10.12  946.94   15.17  946.53   20.23  945.23
   25.29  942.16   30.35  940.44    35.4  939.35   40.46  938.77   45.52  938.77
   50.58  938.83   55.64  938.85   65.75  938.95   70.81  938.98   75.87  938.77
   80.93  938.78  101.16  938.98  106.21  939.07  111.27  939.46  116.33  939.75
  121.39  939.75  126.45  939.79   131.5  940.08  141.62  940.08  146.68  940.12
  151.74  940.41  161.85  940.41  168.21  940.53  173.22  940.74  178.22  940.86
  188.22  941.52  193.22  941.97  198.22  942.62  203.23   943.3  208.23  944.21
  213.23   945.6  218.23  947.35  223.23  948.96  228.23  949.59  248.24  949.61
  253.24  949.59  276.76  949.59
#Mann= 3 ,0,0
       0     .07       0   20.23     .04       0  208.23     .07       0
Bank Sta=20.23,208.23
XS Rating Curve= 0 ,0
XS HTab Starting El and Incr=939.77,0.5, 100 
XS HTab Horizontal Distribution= 5 , 5 , 5 
Exp/Cntr=0.3,0.1

Type RM Length L Ch R = 1 ,14443.72,119.62,138.23,152.5
XS GIS Cut Line=4
       412745.69      1801125.67        412852.8      1801151.04
       412937.79        1801156.        413021.9      1801180.63
Node Last Edited Time=Dec/10/2015 15:50:50
#Sta/Elev= 49 
       0   947.3    5.14  947.32   15.41  947.98   20.55  948.28   25.69   948.3
   30.83  948.51   35.97  948.64   41.11  948.94   46.24  948.92   51.38  948.82
    66.8   947.6   71.94  947.17   77.07  946.45   82.21  945.94   87.35  945.26
   92.49   944.3   97.63  943.62  102.77  942.65  110.06   941.4  115.07  940.74
  120.08  940.09  125.09  939.59  135.11  938.94  140.12  938.77  145.12  938.67
  150.13  938.59  155.14  938.69  165.16  939.04  170.17  939.26  180.18  939.59
  185.19  940.05   190.2  940.55  195.21   940.9  200.42  941.23  205.63  941.88
  210.84  942.56  216.05  943.03  221.26  943.68  226.47  944.54  231.68  945.66
  236.89  947.07   242.1  948.21  247.31  948.77  252.52   949.1  257.73  949.27
  262.94   949.3  268.15  949.43  273.36   949.6  282.85   949.6
#Mann= 3 ,0,0
       0     .07       0    66.8     .04       0   242.1     .07       0
Bank Sta=66.8,242.1
XS Rating Curve= 0 ,0
XS HTab Starting El and Incr=939.59,0.5, 100 
XS HTab Horizontal Distribution= 5 , 5 , 5 
Exp/Cntr=0.3,0.1

Type RM Length L Ch R = 1 ,14305.48,128.27,139.43,150.28
XS GIS Cut Line=2
       412723.15      1801234.19       412942.99      1801318.74
Node Last Edited Time=Dec/10/2015 15:50:50
#Sta/Elev= 35 
       0  945.99   21.43  945.99   26.79  945.81   32.14  945.66    37.5  945.13
   42.86  944.17   48.21  943.08   53.57  942.03   58.93  941.28   64.28   940.8
   69.64  940.35      75  940.08   91.07  939.37   96.43  939.16  101.78   939.1
   112.5  938.87  117.86  938.92  128.57  939.35  133.93  939.71  139.28  940.24
  144.64  940.95     150  941.39  155.36  941.98  160.71  942.72  166.07  943.48
  171.43  944.07  176.78  944.59  182.14  945.09   187.5  946.08  192.85  947.01
  198.21  947.48  214.28  948.47  219.64  948.55     225  948.61  235.54  948.61
#Mann= 3 ,0,0
       0     .07       0    37.5     .04       0   187.5     .07       0
Bank Sta=37.5,187.5
XS Rating Curve= 0 ,0
XS HTab Starting El and Incr=939.87,0.5, 100 
XS HTab Horizontal Distribution= 5 , 5 , 5 
Exp/Cntr=0.3,0.1

Type RM Length L Ch R = 1 ,14166.05,115.26,126.42,144.12
XS GIS Cut Line=2
       412675.23       1801342.7       412882.39      1801463.89
Node Last Edited Time=Dec/10/2015 15:50:50
#Sta/Elev= 33 
       0  946.32    5.79  946.32   11.59     946   17.38  945.99   23.17  945.77
   28.96  944.94   34.76  944.14   40.55  943.56   52.14  941.87   57.93  941.34
   63.72  941.07   69.51  940.63    81.1   939.6   92.68   937.9   98.48  937.38
  104.27  936.81  110.06  936.16  115.86  935.84  121.65  936.02  133.23  935.76
  144.82  936.13  150.61  936.82  156.41  937.58  167.99  939.38  173.78  940.33
  179.58  941.36  185.37  942.06  191.16  942.58  196.96  943.03  208.54  943.69
  220.13  944.34  231.71  944.35     240  944.48
#Mann= 3 ,0,0
       0     .07       0   40.55     .04       0  196.96     .07       0
Bank Sta=40.55,196.96
XS Rating Curve= 0 ,0
XS HTab Starting El and Incr=936.76,0.5, 100 
XS HTab Horizontal Distribution= 5 , 5 , 5 
Exp/Cntr=0.3,0.1

Type RM Length L Ch R = 1 ,14039.64,203.97,180.6,179.04
XS GIS Cut Line=2
       412603.85       1801423.7        412809.6      1801595.63
Node Last Edited Time=Dec/10/2015 15:50:50
#Sta/Elev= 41 
       0  946.04    6.52  945.99   13.03  945.76   19.55  945.42   26.06  944.82
   32.58  944.68    39.1  944.45   45.61  943.89   52.13  943.49   58.64  942.68
   65.16  941.69   71.67  940.94   78.19  940.23   84.71  939.86   91.22   939.3
   97.74  938.41  104.25  937.89  110.77  937.86  117.29  937.98   123.8  938.16
  130.32  938.71  136.83  939.28  143.35  939.77  149.86  940.32  156.38  940.57
   162.9  940.65  169.41   940.8  175.93  941.54  182.44  941.94  188.96   942.3
  195.48  942.58  201.99  942.98  208.51  943.04  215.02   943.3  221.54  943.69
  228.05  943.87  234.57  944.02   247.6  944.02  254.12  944.05  260.63  944.35
  268.13  944.35
#Mann= 3 ,0,0
       0     .07       0   58.64     .04       0  201.99     .07       0
Bank Sta=58.64,201.99
XS Rating Curve= 0 ,0
XS HTab Starting El and Incr=938.86,0.5, 100 
XS HTab Horizontal Distribution= 5 , 5 , 5 
Exp/Cntr=0.3,0.1

Type RM Length L Ch R = 1 ,13859.04,351.45,368.57,379.6
XS GIS Cut Line=6
       412246.43      1801229.71       412271.17      1801390.54
       412506.12      1801582.27       412650.89      1801691.95
       413129.06      1802072.49       413244.62      1802114.33
Node Last Edited Time=Dec/10/2015 15:50:50
#Sta/Elev= 172 
       0   953.2    5.06  952.49   10.12  951.69   15.18  951.26   20.24  951.11
   25.29  951.46   35.41  952.33   40.47  952.65   45.53  952.75   50.59   952.8
   55.65  953.07   60.71  953.25   65.76  953.35   70.82   953.6   75.88  953.71
   80.94  953.76      86  953.77   91.06  953.62   96.12  953.38  101.18  953.16
  106.23  952.83  111.29  952.51  116.35  952.41  121.41  952.27  126.47  952.27
  131.53  952.37  141.65   952.4   146.7  952.21  151.76  952.17  162.72  952.28
  169.17  952.61  175.62  952.76  182.08  952.94  188.53  953.17  194.98  953.26
   220.8  953.47  227.25  953.54  253.06  953.57  259.52  953.59  265.97  953.87
  278.88  953.89  285.33  953.92  291.78  954.13  298.24  954.18  324.05  954.19
   330.5  954.16  336.96  953.89  343.41  953.88  349.86  953.89  356.32  953.74
  375.68  952.94  382.13  952.72  388.58  952.58  395.04  952.17  401.49  951.95
  407.95  951.93   414.4  951.61  420.85  950.96  427.31  950.08  433.76  948.66
  440.21  946.77  446.67  944.91  453.12  943.07  459.57   941.3  465.97  940.16
  478.52  938.59  484.79  938.06  491.07  937.37  503.61  936.77  509.88  936.04
  516.16  935.05  522.43  934.61   528.7     935  534.98  935.35  541.25  935.47
   553.8  935.55  560.07  935.34  566.34  935.49  578.89  935.49  585.16   935.7
  591.43  935.87  603.98  936.45  610.25  936.51  616.53     937   622.8  937.52
  635.35  938.78   647.6   940.5  653.99  940.81  660.38  941.66  666.77  941.73
  673.16  941.88  679.55  942.38  685.94  942.38  692.33  942.41  698.72  942.71
  705.11  942.71   711.5  942.75  717.89  943.07  724.28  943.15  730.67  943.37
  781.79  943.37  788.18   943.4  794.57  943.54  800.96  943.39  807.35   943.4
  813.74  943.44   839.3  943.68  877.64  943.69  896.81  943.73   903.2  944.02
  922.37  944.02  928.76  943.96  935.15  944.02   967.1  944.02  973.49  944.06
  979.88  944.35  999.05  944.35 1005.44  944.36 1011.83  944.39 1018.23  944.68
 1024.62  944.71 1031.01  945.01  1037.4  945.04 1043.79  945.33 1050.18  945.37
 1056.57   945.7 1062.96  945.99 1069.35     946 1075.74  946.03 1088.52  946.68
 1094.91  946.98  1101.3  947.01 1114.08  947.67 1120.47  947.94 1126.86  947.99
 1133.25   948.1 1146.03  948.54 1152.42  948.62 1158.81  948.65  1165.2  948.77
 1171.59  948.96 1177.98  948.98 1184.37  949.26 1197.15  949.31 1203.54   949.5
 1209.93  949.57 1216.32  949.92 1222.71  949.73  1229.1  950.12 1235.49  950.49
 1241.88  950.62 1248.27  950.95 1254.66  951.02 1258.72  951.13 1264.03  951.57
 1269.35  951.81 1274.67  952.02 1279.99  952.16  1285.3  952.22 1295.94  952.48
 1301.26  952.54 1306.57  952.42 1311.89  952.23 1322.53  951.74 1327.85  951.32
 1333.16  950.97 1338.48  950.91  1343.8  950.91 1349.12  951.16 1370.39  952.47
  1375.7  952.55 1381.62  952.55
#Mann= 3 ,0,0
       0     .07       0  459.57     .04       0  660.38     .07       0
#XS Ineff= 1 ,-1 
  808.43 1381.62952.5518
Permanent Ineff=
       F
Bank Sta=459.57,660.38
XS Rating Curve= 0 ,0
XS HTab Starting El and Incr=935.61,0.5, 100 
XS HTab Horizontal Distribution= 5 , 5 , 5 
Exp/Cntr=0.3,0.1

Type RM Length L Ch R = 1 ,13490.47,273.29,275.66,265.67
XS GIS Cut Line=4
       411983.77      1801435.71       412194.21      1801719.43
       412367.08      1801952.43       413032.24      1802459.75
Node Last Edited Time=Dec/10/2015 15:50:50
#Sta/Elev= 151 
       0  944.68    6.23  944.82   12.45  945.01   18.68  945.01    24.9   944.7
   31.13  944.56   37.35  944.05   43.58  943.72    49.8  942.88   56.03   942.1
   62.25  941.48   68.48  941.07    74.7  940.33   80.93  940.12   87.15  939.81
  112.05  939.47  124.51  939.44  130.73  939.44  136.96  939.13  143.18  939.35
  149.41  939.28  155.63  939.13  161.86  939.11  168.08  939.11  174.31  938.94
  180.53   938.8  186.76  938.78  192.98  938.47  199.21  938.45  205.43   938.4
  211.66  938.12  217.88  937.81  224.11  937.79  236.56   937.2  242.78  936.95
  249.01  936.81  255.24   936.5  261.46  936.17  267.69  935.98  273.91  935.82
  280.14  935.52  286.36   935.5  292.59  935.19  305.04  935.16  311.26  934.85
  329.94  934.84  336.16   934.6  342.39  934.51  353.25  934.51  359.48   934.4
   365.7  934.18  409.29  934.18  415.51  933.94  421.74  933.86  446.64  933.86
  452.87  934.15  459.09  934.18  471.54  934.18  477.77  934.61     484  935.18
  490.22  936.21  496.45  937.57  502.67  938.98   508.9  940.36  515.13  941.43
  521.35  942.44  527.58  942.94   533.8  943.04  546.26  943.04  552.48  942.82
  558.71  942.71  583.61  942.71  589.84  942.49  602.29  941.96  608.51  941.46
  614.74  941.08  627.19  941.07  633.42  940.85  639.64  940.75  712.54  940.75
  718.83  940.54  725.12  940.42  731.41  940.42   737.7   940.3  743.98  940.09
  775.43  940.09  781.71  940.07     788  939.82  794.29  939.76  857.17  939.76
  863.46  939.87  869.75  940.09  938.92  940.09  945.21   940.2   951.5  940.42
 1026.96  940.42 1033.25  940.65 1039.54  940.75 1045.82  940.76 1052.11  941.03
  1058.4  941.14 1064.69   941.4 1070.98   941.4 1077.27  941.51 1083.55  941.73
 1089.84  941.87 1096.13  942.06    1115  942.06 1121.28  942.14 1127.57  942.39
 1146.44  942.39 1152.73  942.51 1159.01  942.71 1177.88  942.71 1184.17  942.81
 1190.46  943.04 1203.03  943.04 1209.32  943.15 1215.61  943.37 1234.47  943.37
 1240.76  943.64 1247.05   943.7 1259.63   943.7 1265.92  943.81  1272.2  944.03
 1278.49  944.14 1284.78  944.36 1291.07  944.65 1297.36   944.8 1303.65   945.2
 1309.93  945.35 1316.22  945.74 1322.51  946.25  1328.8  946.64 1335.09  947.09
 1353.95  948.08 1360.24   948.4 1366.53  948.85 1372.82  949.62 1379.11   950.2
 1385.39  950.37 1391.68  950.58 1397.97   950.7 1410.55  951.35 1416.84  951.57
 1423.12  951.67 1429.41   951.9 1448.28   951.9 1454.57  951.97 1460.85  952.23
 1479.92  952.23
#Mann= 3 ,0,0
       0     .07       0  329.94     .04       0  515.13     .07       0
#XS Ineff= 1 ,-1 
  1084.2 1479.92 952.227
Permanent Ineff=
       F
Bank Sta=329.94,515.13
XS Rating Curve= 0 ,0
XS HTab Starting El and Incr=934.86,0.5, 100 
XS HTab Horizontal Distribution= 5 , 5 , 5 
Exp/Cntr=0.3,0.1

Type RM Length L Ch R = 1 ,13214.80,442.62,397.44,283.45
XS GIS Cut Line=4
       411805.27      1801642.39       411957.46      1801852.84
       412134.09      1802072.68        412874.4      1802816.76
Node Last Edited Time=Dec/10/2015 15:50:50
#Sta/Elev= 123 
       0   944.7     100   944.7  203.63  946.65   209.8  946.65  215.97  946.56
  222.14  946.23  228.31  945.33  234.48  944.07  240.65  942.42  246.82  941.46
  252.99  941.28  259.71  941.13  266.13  940.67  278.96  940.15  285.37  939.84
   298.2  939.67  304.61  939.65  317.44  939.76  323.85  939.76  330.27   939.8
  336.68  940.15  343.09  941.05  349.51  941.45  355.92  941.95  362.34  942.24
  368.75  942.39  426.47  942.39  432.89  942.21   439.3  941.76  445.71  941.38
  452.13   940.9  458.54  940.52  464.96  940.09  471.37  939.86  477.78  939.44
   484.2  939.32  490.61  939.11  562.88  939.11  569.93  939.35  576.98  939.44
   619.3  939.44  626.36  939.66  633.41  939.76  640.46  939.76  647.52  939.98
  654.57  940.09  661.62  940.09  668.68  940.31  675.73  940.42  682.78  940.38
  689.84  940.42  718.05  940.42   725.1  940.18  732.16  940.09  746.26  940.09
  753.32  940.03  760.37  939.76  845.01  939.76  852.06  939.94  859.11  940.09